Grid Data/SMARTDS/Lines.dss
New Line.sb9_p17uhs13_1247_298 Units=km Length=0.001511744 bus1=sb9_p17uhs13_1247_bus_9_12.1.2.3 bus2=p17udt1410-p17uhs13_1247x.1.2.3 switch=n enabled=y phases=3 Linecode=3P_OH_Code_3

New Line.sb9_p17uhs13_1247_295 Units=km Length=0.001511744 bus1=sb9_p17uhs13_1247_bus_9_9.1.2.3 bus2=p17udt1222-p17uhs13_1247x.1.2.3 switch=n enabled=y phases=3 Linecode=3P_OH_Code_3

New Line.sb9_p17uhs13_1247_297 Units=km Length=0.001511744 bus1=sb9_p17uhs13_1247_bus_9_11.1.2.3 bus2=p17udt8595-p17uhs13_1247x.1.2.3 switch=n enabled=y phases=3 Linecode=3P_OH_Code_3

New Line.sb9_p17uhs13_1247_293 Units=km Length=0.001511744 bus1=sb9_p17uhs13_1247_bus_9_7.1.2.3 bus2=p17udt12006-p17uhs13_1247x.1.2.3 switch=n enabled=y phases=3 Linecode=3P_OH_Code_3

New Line.sb9_p17uhs13_1247_294 Units=km Length=0.001511744 bus1=sb9_p17uhs13_1247_bus_9_8.1.2.3 bus2=p17udt1291-p17uhs13_1247x.1.2.3 switch=n enabled=y phases=3 Linecode=3P_OH_Code_3

New Line.sb9_p17uhs13_1247_296 Units=km Length=0.001511744 bus1=sb9_p17uhs13_1247_bus_9_10.1.2.3 bus2=sb9_p17uhs13_1247_node_9_4.1.2.3 switch=n enabled=y phases=3 Linecode=3P_OH_Code_3

New Line.sb9_p17uhs13_1247_290 Units=km Length=0.001 bus1=sb9_p17uhs13_1247_bus_9_11.1.2.3 bus2=sb9_p17uhs13_1247_bus_9_6.1.2.3 switch=y enabled=n phases=3 Linecode=DISCONNECT_SWITCH_13KV_3

New Line.sb9_p17uhs13_1247_289 Units=km Length=0.001 bus1=sb9_p17uhs13_1247_bus_9_12.1.2.3 bus2=sb9_p17uhs13_1247_bus_9_6.1.2.3 switch=y enabled=n phases=3 Linecode=DISCONNECT_SWITCH_13KV_3

New Line.sb9_p17uhs13_1247_286 Units=km Length=0.001 bus1=sb9_p17uhs13_1247_bus_9_7.1.2.3 bus2=sb9_p17uhs13_1247_bus_9_5.1.2.3 switch=y enabled=n phases=3 Linecode=DISCONNECT_SWITCH_13KV_3

New Line.sb9_p17uhs13_1247_292 Units=km Length=0.001 bus1=sb9_p17uhs13_1247_bus_9_5.1.2.3 bus2=sb9_p17uhs13_1247_bus_9_6.1.2.3 switch=y enabled=n phases=3 Linecode=DISCONNECT_SWITCH_13KV_3

New Line.sb9_p17uhs13_1247_284 Units=km Length=0.001 bus1=sb9_p17uhs13_1247_node_9_25.1.2.3 bus2=sb9_p17uhs13_1247_node_9_26.1.2.3 switch=y enabled=y phases=3 Linecode=BREAKER_13KV_3

New Line.sb9_p17uhs13_1247_418 Units=km Length=0.001 bus1=sb9_p17uhs13_1247_node_9_25.1.2.3 bus2=sb9_p17uhs13_1247_bus_9_4.1.2.3 switch=y enabled=y phases=3 Linecode=DISCONNECT_SWITCH_13KV_3

New Line.sb9_p17uhs13_1247_417 Units=km Length=0.001 bus1=sb9_p17uhs13_1247_node_9_23.1.2.3 bus2=sb9_p17uhs13_1247_bus_9_3.1.2.3 switch=y enabled=y phases=3 Linecode=DISCONNECT_SWITCH_13KV_3

New Line.sb9_p17uhs13_1247_282 Units=km Length=0.001 bus1=sb9_p17uhs13_1247_node_9_28.1.2.3 bus2=sb9_p17uhs13_1247_bus_9_11.1.2.3 switch=y enabled=y phases=3 Linecode=DISCONNECT_SWITCH_13KV_3

New Line.sb9_p17uhs13_1247_278 Units=km Length=0.001 bus1=sb9_p17uhs13_1247_node_9_29.1.2.3 bus2=sb9_p17uhs13_1247_node_9_30.1.2.3 switch=y enabled=y phases=3 Linecode=BREAKER_13KV_3

New Line.sb9_p17uhs13_1247_185 Units=km Length=0.001 bus1=sb9_p17uhs13_1247_node_9_9.1.2.3 bus2=sb9_p17uhs13_1247_bus_9_1.1.2.3 switch=y enabled=y phases=3 Linecode=DISCONNECT_SWITCH_69KV_3

New Line.sb9_p17uhs13_1247_415 Units=km Length=0.001 bus1=sb9_p17uhs13_1247_node_9_19.1.2.3 bus2=sb9_p17uhs13_1247_bus_9_3.1.2.3 switch=y enabled=y phases=3 Linecode=DISCONNECT_SWITCH_13KV_3

New Line.sb9_p17uhs13_1247_275 Units=km Length=0.001 bus1=sb9_p17uhs13_1247_node_9_23.1.2.3 bus2=sb9_p17uhs13_1247_node_9_24.1.2.3 switch=y enabled=y phases=3 Linecode=BREAKER_13KV_3

New Line.sb9_p17uhs13_1247_409 Units=km Length=0.001 bus1=sb9_p17uhs13_1247_node_9_14.1.2.3 bus2=sb9_p17uhs13_1247_node_9_13.1.2.3 switch=y enabled=y phases=3 Linecode=BREAKER_69KV_3

New Line.sb9_p17uhs13_1247_413 Units=km Length=0.001 bus1=sb9_p17uhs13_1247_node_9_18.1.2.3 bus2=sb9_p17uhs13_1247_bus_9_4.1.2.3 switch=y enabled=y phases=3 Linecode=BREAKER_13KV_3

New Line.sb9_p17uhs13_1247_269 Units=km Length=0.001 bus1=sb9_p17uhs13_1247_node_9_19.1.2.3 bus2=sb9_p17uhs13_1247_node_9_20.1.2.3 switch=y enabled=y phases=3 Linecode=BREAKER_13KV_3

New Line.sb9_p17uhs13_1247_273 Units=km Length=0.001 bus1=sb9_p17uhs13_1247_node_9_22.1.2.3 bus2=sb9_p17uhs13_1247_bus_9_8.1.2.3 switch=y enabled=y phases=3 Linecode=DISCONNECT_SWITCH_13KV_3

New Line.sb9_p17uhs13_1247_411 Units=km Length=0.001 bus1=sb9_p17uhs13_1247_node_9_16.1.2.3 bus2=sb9_p17uhs13_1247_node_9_15.1.2.3 switch=y enabled=y phases=3 Linecode=BREAKER_69KV_3

New Line.sb9_p17uhs13_1247_287 Units=km Length=0.001 bus1=sb9_p17uhs13_1247_bus_9_8.1.2.3 bus2=sb9_p17uhs13_1247_bus_9_5.1.2.3 switch=y enabled=n phases=3 Linecode=DISCONNECT_SWITCH_13KV_3

New Line.sb9_p17uhs13_1247_291 Units=km Length=0.001 bus1=sb9_p17uhs13_1247_bus_9_10.1.2.3 bus2=sb9_p17uhs13_1247_bus_9_6.1.2.3 switch=y enabled=n phases=3 Linecode=DISCONNECT_SWITCH_13KV_3

New Line.sb9_p17uhs13_1247_288 Units=km Length=0.001 bus1=sb9_p17uhs13_1247_bus_9_9.1.2.3 bus2=sb9_p17uhs13_1247_bus_9_5.1.2.3 switch=y enabled=n phases=3 Linecode=DISCONNECT_SWITCH_13KV_3

New Line.sb9_p17uhs13_1247_420 Units=km Length=0.001 bus1=sb9_p17uhs13_1247_node_9_29.1.2.3 bus2=sb9_p17uhs13_1247_bus_9_4.1.2.3 switch=y enabled=y phases=3 Linecode=DISCONNECT_SWITCH_13KV_3

New Line.sb9_p17uhs13_1247_285 Units=km Length=0.001 bus1=sb9_p17uhs13_1247_node_9_26.1.2.3 bus2=sb9_p17uhs13_1247_bus_9_10.1.2.3 switch=y enabled=y phases=3 Linecode=DISCONNECT_SWITCH_13KV_3

New Line.sb9_p17uhs13_1247_416 Units=km Length=0.001 bus1=sb9_p17uhs13_1247_node_9_21.1.2.3 bus2=sb9_p17uhs13_1247_bus_9_3.1.2.3 switch=y enabled=y phases=3 Linecode=DISCONNECT_SWITCH_13KV_3

New Line.sb9_p17uhs13_1247_419 Units=km Length=0.001 bus1=sb9_p17uhs13_1247_node_9_27.1.2.3 bus2=sb9_p17uhs13_1247_bus_9_4.1.2.3 switch=y enabled=y phases=3 Linecode=DISCONNECT_SWITCH_13KV_3

New Line.sb9_p17uhs13_1247_276 Units=km Length=0.001 bus1=sb9_p17uhs13_1247_node_9_24.1.2.3 bus2=sb9_p17uhs13_1247_bus_9_9.1.2.3 switch=y enabled=y phases=3 Linecode=DISCONNECT_SWITCH_13KV_3

New Line.sb9_p17uhs13_1247_414 Units=km Length=0.001 bus1=sb9_p17uhs13_1247_node_9_17.1.2.3 bus2=sb9_p17uhs13_1247_bus_9_3.1.2.3 switch=y enabled=y phases=3 Linecode=BREAKER_13KV_3

New Line.sb9_p17uhs13_1247_281 Units=km Length=0.001 bus1=sb9_p17uhs13_1247_node_9_27.1.2.3 bus2=sb9_p17uhs13_1247_node_9_28.1.2.3 switch=y enabled=y phases=3 Linecode=BREAKER_13KV_3

New Line.sb9_p17uhs13_1247_279 Units=km Length=0.001 bus1=sb9_p17uhs13_1247_node_9_30.1.2.3 bus2=sb9_p17uhs13_1247_bus_9_12.1.2.3 switch=y enabled=y phases=3 Linecode=DISCONNECT_SWITCH_13KV_3

New Line.sb9_p17uhs13_1247_186 Units=km Length=0.001 bus1=sb9_p17uhs13_1247_bus_9_1.1.2.3 bus2=sb9_p17uhs13_1247_bus_9_2.1.2.3 switch=y enabled=y phases=3 Linecode=DISCONNECT_SWITCH_69KV_3

New Line.sb9_p17uhs13_1247_155 Units=km Length=0.001 bus1=sb9_p17uhs13_1247_node_9_8.1.2.3 bus2=sb9_p17uhs13_1247_node_9_9.1.2.3 switch=y enabled=y phases=3 Linecode=BREAKER_69KV_3

New Line.sb9_p17uhs13_1247_412 Units=km Length=0.001 bus1=sb9_p17uhs13_1247_node_9_15.1.2.3 bus2=sb9_p17uhs13_1247_bus_9_2.1.2.3 switch=y enabled=y phases=3 Linecode=DISCONNECT_SWITCH_69KV_3

New Line.sb9_p17uhs13_1247_407 Units=km Length=0.001 bus1=sb9_p17uhs13_1247_node_9_8.1.2.3 bus2=p17uhs13_69.1.2.3 switch=y enabled=y phases=3 Linecode=DISCONNECT_SWITCH_69KV_3

New Line.sb9_p17uhs13_1247_272 Units=km Length=0.001 bus1=sb9_p17uhs13_1247_node_9_21.1.2.3 bus2=sb9_p17uhs13_1247_node_9_22.1.2.3 switch=y enabled=y phases=3 Linecode=BREAKER_13KV_3

New Line.sb9_p17uhs13_1247_410 Units=km Length=0.001 bus1=sb9_p17uhs13_1247_node_9_13.1.2.3 bus2=sb9_p17uhs13_1247_bus_9_1.1.2.3 switch=y enabled=y phases=3 Linecode=DISCONNECT_SWITCH_69KV_3

New Line.sb9_p17uhs13_1247_267 Units=km Length=0.001 bus1=sb9_p17uhs13_1247_bus_9_3.1.2.3 bus2=sb9_p17uhs13_1247_bus_9_4.1.2.3 switch=y enabled=n phases=3 Linecode=DISCONNECT_SWITCH_13KV_3

New Line.sb9_p17uhs13_1247_270 Units=km Length=0.001 bus1=sb9_p17uhs13_1247_node_9_20.1.2.3 bus2=sb9_p17uhs13_1247_bus_9_7.1.2.3 switch=y enabled=y phases=3 Linecode=DISCONNECT_SWITCH_13KV_3

