Grid Data/SMARTDS/p17uhs13_1247--p17udt12006/Lines.dss
New Line.l(r:p17udt1627lv-p17ulv6376) Units=km Length=0.00948283 bus1=p17udt1627lv.1.2 bus2=p17ulv6376.1.2 switch=n enabled=y phases=2 Linecode=1P_OH_AL_2/0_Rucina_2

New Line.l(r:p17udt1627lv-p17ulv6434) Units=km Length=0.00446481 bus1=p17udt1627lv.1.2 bus2=p17ulv6434.1.2 switch=n enabled=y phases=2 Linecode=1P_OH_AL_2/0_Rucina_2

New Line.l(r:p17udm6861-p17ulv6336) Units=km Length=0.00884796 bus1=p17udm6861.1.2 bus2=p17ulv6336.1.2 switch=n enabled=y phases=2 Linecode=1P_OH_AL_2/0_Rucina_2

New Line.l(r:p17udm6862-p17ulv6367) Units=km Length=0.0142902 bus1=p17udm6862.1.2 bus2=p17ulv6367.1.2 switch=n enabled=y phases=2 Linecode=1P_OH_AL_2/0_Rucina_2

New Line.l(r:p17udm6865-p17ulv6478) Units=km Length=0.0176443 bus1=p17udm6865.1.2 bus2=p17ulv6478.1.2 switch=n enabled=y phases=2 Linecode=1P_OH_AL_2/0_Rucina_2

New Line.l(r:p17udm6865-p17ulv6604) Units=km Length=0.0181815 bus1=p17udm6865.1.2 bus2=p17ulv6604.1.2 switch=n enabled=y phases=2 Linecode=1P_OH_AL_2/0_Rucina_2

New Line.l(r:p17udm6860-p17ulv6263) Units=km Length=0.0144203 bus1=p17udm6860.1.2 bus2=p17ulv6263.1.2 switch=n enabled=y phases=2 Linecode=1P_OH_AL_2/0_Rucina_2

New Line.l(r:p17udm6860-p17udm6865) Units=km Length=0.0180106 bus1=p17udm6865.1.2 bus2=p17udm6860.1.2 switch=n enabled=y phases=2 Linecode=1P_OH_AL_2/0_Rucina_2

New Line.l(r:p17udm6862-p17udm6865) Units=km Length=0.0360213 bus1=p17udm6862.1.2 bus2=p17udm6865.1.2 switch=n enabled=y phases=2 Linecode=1P_OH_AL_4/0_Zuzara_2

New Line.l(r:p17udm6861-p17udm6862) Units=km Length=0.0166652 bus1=p17udm6861.1.2 bus2=p17udm6862.1.2 switch=n enabled=y phases=2 Linecode=1P_OH_AL_2/0_Rucina_2

New Line.l(r:p17udm6861-p17udt1627lv) Units=km Length=0.0166652 bus1=p17udt1627lv.1.2 bus2=p17udm6861.1.2 switch=n enabled=y phases=2 Linecode=1P_OH_AL_2/0_Rucina_2

New Line.l(r:p17udm6866-p17ulv6493) Units=km Length=0.005211880000000001 bus1=p17udm6866.1.2 bus2=p17ulv6493.1.2 switch=n enabled=y phases=2 Linecode=1P_OH_AL_2/0_Rucina_2

New Line.l(r:p17udm6867-p17ulv6535) Units=km Length=0.0204146 bus1=p17udm6867.1.2 bus2=p17ulv6535.1.2 switch=n enabled=y phases=2 Linecode=1P_OH_AL_2/0_Rucina_2

New Line.l(r:p17udm6867-p17ulv6582) Units=km Length=0.0260129 bus1=p17udm6867.1.2 bus2=p17ulv6582.1.2 switch=n enabled=y phases=2 Linecode=1P_OH_AL_2/0_Rucina_2

New Line.l(r:p17udm6867-p17ulv6649) Units=km Length=0.00184532 bus1=p17udm6867.1.2 bus2=p17ulv6649.1.2 switch=n enabled=y phases=2 Linecode=1P_OH_AL_4_Periwinkle_2

New Line.l(r:p17udm6866-p17udm6867) Units=km Length=0.0166652 bus1=p17udm6866.1.2 bus2=p17udm6867.1.2 switch=n enabled=y phases=2 Linecode=1P_OH_AL_2/0_Rucina_2

New Line.l(r:p17udm6866-p17udt1627lv) Units=km Length=0.0166684 bus1=p17udt1627lv.1.2 bus2=p17udm6866.1.2 switch=n enabled=y phases=2 Linecode=1P_OH_AL_2/0_Rucina_2

New Line.l(r:p17udt1629lv-p17ulv6686) Units=km Length=0.00683518 bus1=p17udt1629lv.1.2 bus2=p17ulv6686.1.2 switch=n enabled=y phases=2 Linecode=1P_OH_AL_2/0_Rucina_2

New Line.l(r:p17udm6876-p17ulv6586) Units=km Length=0.00458628 bus1=p17udm6876.1.2 bus2=p17ulv6586.1.2 switch=n enabled=y phases=2 Linecode=1P_OH_AL_2/0_Rucina_2

New Line.l(r:p17udm6876-p17ulv6590) Units=km Length=0.010805 bus1=p17udm6876.1.2 bus2=p17ulv6590.1.2 switch=n enabled=y phases=2 Linecode=1P_OH_AL_2/0_Rucina_2

New Line.l(r:p17udm6875-p17ulv6574) Units=km Length=0.00174413 bus1=p17udm6875.1.2 bus2=p17ulv6574.1.2 switch=n enabled=y phases=2 Linecode=1P_OH_AL_4_Periwinkle_2

New Line.l(r:p17udm6875-p17ulv16019) Units=km Length=0.0101377 bus1=p17udm6875.1.2 bus2=p17ulv16019.1.2 switch=n enabled=y phases=2 Linecode=1P_OH_AL_2/0_Rucina_2

New Line.l(r:p17udm6875-p17udm6876) Units=km Length=0.0196419 bus1=p17udm6876.1.2 bus2=p17udm6875.1.2 switch=n enabled=y phases=2 Linecode=1P_OH_AL_2/0_Rucina_2

New Line.l(r:p17udm6876-p17udt1629lv) Units=km Length=0.0378637 bus1=p17udt1629lv.1.2 bus2=p17udm6876.1.2 switch=n enabled=y phases=2 Linecode=1P_OH_AL_4/0_Zuzara_2

New Line.l(r:p17udm6879-p17ulv15928) Units=km Length=0.006966580000000001 bus1=p17udm6879.1.2 bus2=p17ulv15928.1.2 switch=n enabled=y phases=2 Linecode=1P_OH_AL_2/0_Rucina_2

New Line.l(r:p17udm6874-p17ulv6266) Units=km Length=0.001 bus1=p17udm6874.1.2 bus2=p17ulv6266.1.2 switch=n enabled=y phases=2 Linecode=1P_OH_AL_4_Periwinkle_2

New Line.l(r:p17udm6874-p17udm6879) Units=km Length=0.0102333 bus1=p17udm6879.1.2 bus2=p17udm6874.1.2 switch=n enabled=y phases=2 Linecode=1P_OH_AL_2/0_Rucina_2

New Line.l(r:p17udm6879-p17udt1629lv) Units=km Length=0.0102331 bus1=p17udt1629lv.1.2 bus2=p17udm6879.1.2 switch=n enabled=y phases=2 Linecode=1P_OH_AL_2/0_Rucina_2

New Line.l(r:p17udm6940-p17ulv6414) Units=km Length=0.01259 bus1=p17udm6940.1.2 bus2=p17ulv6414.1.2 switch=n enabled=y phases=2 Linecode=1P_UG_AL_1/0_Brenau_2

New Line.l(r:p17udm6940-p17ulv15976) Units=km Length=0.010241 bus1=p17udm6940.1.2 bus2=p17ulv15976.1.2 switch=n enabled=y phases=2 Linecode=1P_UG_AL_1/0_Brenau_2

New Line.l(r:p17udm6949-p17ulv16075) Units=km Length=0.0127272 bus1=p17udm6949.1.2 bus2=p17ulv16075.1.2 switch=n enabled=y phases=2 Linecode=1P_UG_AL_1/0_Brenau_2

New Line.l(r:p17udm6948-p17ulv16037) Units=km Length=0.0110693 bus1=p17udm6948.1.2 bus2=p17ulv16037.1.2 switch=n enabled=y phases=2 Linecode=1P_UG_AL_1/0_Brenau_2

New Line.l(r:p17udm6944-p17ulv15837) Units=km Length=0.0123592 bus1=p17udm6944.1.2 bus2=p17ulv15837.1.2 switch=n enabled=y phases=2 Linecode=1P_UG_AL_1/0_Brenau_2

New Line.l(r:p17udm6946-p17ulv15942) Units=km Length=0.0176082 bus1=p17udm6946.1.2 bus2=p17ulv15942.1.2 switch=n enabled=y phases=2 Linecode=1P_UG_AL_1/0_Brenau_2

New Line.l(r:p17udm6944-p17udm6946) Units=km Length=0.00977115 bus1=p17udm6944.1.2 bus2=p17udm6946.1.2 switch=n enabled=y phases=2 Linecode=1P_UG_AL_1/0_Brenau_2

New Line.l(r:p17udm6944-p17udm6948) Units=km Length=0.0195423 bus1=p17udm6948.1.2 bus2=p17udm6944.1.2 switch=n enabled=y phases=2 Linecode=1P_UG_AL_1/0_Brenau_2

New Line.l(r:p17udm6948-p17udm6949) Units=km Length=0.00976115 bus1=p17udm6949.1.2 bus2=p17udm6948.1.2 switch=n enabled=y phases=2 Linecode=1P_UG_AL_1/0_Brenau_2

New Line.l(r:p17udm6940-p17udm6949) Units=km Length=0.00977115 bus1=p17udm6940.1.2 bus2=p17udm6949.1.2 switch=n enabled=y phases=2 Linecode=1P_UG_AL_4/0_Sweetbriar_2

New Line.l(r:p17udm6940-p17udt1640lv) Units=km Length=0.00977115 bus1=p17udt1640lv.1.2 bus2=p17udm6940.1.2 switch=n enabled=y phases=2 Linecode=1P_UG_AL_4/0_Sweetbriar_2

New Line.l(r:p17udm6943-p17ulv15813) Units=km Length=0.010180700000000003 bus1=p17udm6943.1.2 bus2=p17ulv15813.1.2 switch=n enabled=y phases=2 Linecode=1P_UG_AL_1/0_Brenau_2

New Line.l(r:p17udm6939-p17ulv6284) Units=km Length=0.011307 bus1=p17udm6939.1.2 bus2=p17ulv6284.1.2 switch=n enabled=y phases=2 Linecode=1P_OH_AL_2/0_Rucina_2

New Line.l(r:p17udm6939-p17ulv14054) Units=km Length=0.0547011 bus1=p17udm6939.1.2 bus2=p17ulv14054.1.2 switch=n enabled=y phases=2 Linecode=1P_OH_AL_4/0_Zuzara_2

New Line.l(r:p17udm6939-p17ulv15757) Units=km Length=0.00490209 bus1=p17udm6939.1.2 bus2=p17ulv15757.1.2 switch=n enabled=y phases=2 Linecode=1P_OH_AL_2/0_Rucina_2

New Line.l(r:p17udm6939-p17ulv15845) Units=km Length=0.014719700000000002 bus1=p17udm6939.1.2 bus2=p17ulv15845.1.2 switch=n enabled=y phases=2 Linecode=1P_OH_AL_2/0_Rucina_2

New Line.l(r:p17udm6939-p17udm6943) Units=km Length=0.009771 bus1=p17udm6943.1.2 bus2=p17udm6939.1.2 switch=n enabled=y phases=2 Linecode=1P_OH_AL_2/0_Rucina_2

New Line.l(r:p17udm6943-p17udt1640lv) Units=km Length=0.00977115 bus1=p17udt1640lv.1.2 bus2=p17udm6943.1.2 switch=n enabled=y phases=2 Linecode=1P_UG_AL_4/0_Sweetbriar_2

New Line.l(r:p17udt1649lv-p17ulv6516) Units=km Length=0.0182642 bus1=p17udt1649lv.1.2 bus2=p17ulv6516.1.2 switch=n enabled=y phases=2 Linecode=1P_OH_AL_2/0_Rucina_2

New Line.l(r:p17udt1649lv-p17ulv6568) Units=km Length=0.0225268 bus1=p17udt1649lv.1.2 bus2=p17ulv6568.1.2 switch=n enabled=y phases=2 Linecode=1P_OH_AL_2/0_Rucina_2

New Line.l(r:p17udm6992-p17ulv6296) Units=km Length=0.0277518 bus1=p17udm6992.1.2 bus2=p17ulv6296.1.2 switch=n enabled=y phases=2 Linecode=1P_OH_AL_4/0_Zuzara_2

New Line.l(r:p17udm6992-p17udt1649lv) Units=km Length=0.019964500000000003 bus1=p17udt1649lv.1.2 bus2=p17udm6992.1.2 switch=n enabled=y phases=2 Linecode=1P_OH_AL_2/0_Rucina_2

New Line.l(r:p17udt1651lv-p17ulv6307) Units=km Length=0.019141400000000003 bus1=p17udt1651lv.1.2 bus2=p17ulv6307.1.2 switch=n enabled=y phases=2 Linecode=1P_OH_AL_2/0_Rucina_2

New Line.l(r:p17udt1651lv-p17ulv15924) Units=km Length=0.0445072 bus1=p17udt1651lv.1.2 bus2=p17ulv15924.1.2 switch=n enabled=y phases=2 Linecode=1P_OH_AL_4/0_Zuzara_2

New Line.l(r:p17udm7000-p17ulv6298) Units=km Length=0.0196019 bus1=p17udm7000.1.2 bus2=p17ulv6298.1.2 switch=n enabled=y phases=2 Linecode=1P_OH_AL_2/0_Rucina_2

New Line.l(r:p17udm7000-p17ulv16020) Units=km Length=0.048239 bus1=p17udm7000.1.2 bus2=p17ulv16020.1.2 switch=n enabled=y phases=2 Linecode=1P_OH_AL_4/0_Zuzara_2

New Line.l(r:p17udm7003-p17ulv6411) Units=km Length=0.0184119 bus1=p17udm7003.1.2 bus2=p17ulv6411.1.2 switch=n enabled=y phases=2 Linecode=1P_OH_AL_2/0_Rucina_2

New Line.l(r:p17udm7000-p17udm7003) Units=km Length=0.0169507 bus1=p17udm7000.1.2 bus2=p17udm7003.1.2 switch=n enabled=y phases=2 Linecode=1P_OH_AL_2/0_Rucina_2

New Line.l(r:p17udm7000-p17udt1651lv) Units=km Length=0.0169606 bus1=p17udt1651lv.1.2 bus2=p17udm7000.1.2 switch=n enabled=y phases=2 Linecode=1P_OH_AL_2/0_Rucina_2

New Line.l(r:p17udm7004-p17ulv6427) Units=km Length=0.0225547 bus1=p17udm7004.1.2 bus2=p17ulv6427.1.2 switch=n enabled=y phases=2 Linecode=1P_OH_AL_2/0_Rucina_2

New Line.l(r:p17udm7005-p17ulv6532) Units=km Length=0.0159761 bus1=p17udm7005.1.2 bus2=p17ulv6532.1.2 switch=n enabled=y phases=2 Linecode=1P_OH_AL_2/0_Rucina_2

New Line.l(r:p17udm7002-p17ulv6309) Units=km Length=0.0218894 bus1=p17udm7002.1.2 bus2=p17ulv6309.1.2 switch=n enabled=y phases=2 Linecode=1P_OH_AL_2/0_Rucina_2

New Line.l(r:p17udm7002-p17udm7005) Units=km Length=0.0159005 bus1=p17udm7005.1.2 bus2=p17udm7002.1.2 switch=n enabled=y phases=2 Linecode=1P_OH_AL_2/0_Rucina_2

New Line.l(r:p17udm7004-p17udm7005) Units=km Length=0.0159006 bus1=p17udm7004.1.2 bus2=p17udm7005.1.2 switch=n enabled=y phases=2 Linecode=1P_OH_AL_2/0_Rucina_2

New Line.l(r:p17udm7004-p17udt1651lv) Units=km Length=0.0159006 bus1=p17udt1651lv.1.2 bus2=p17udm7004.1.2 switch=n enabled=y phases=2 Linecode=1P_OH_AL_2/0_Rucina_2

New Line.l(r:p17udt1661lv-p17ulv6430) Units=km Length=0.00387687 bus1=p17udt1661lv.1.2 bus2=p17ulv6430.1.2 switch=n enabled=y phases=2 Linecode=1P_OH_AL_4_Periwinkle_2

New Line.l(r:p17udm7054-p17ulv6322) Units=km Length=0.0147482 bus1=p17udm7054.1.2 bus2=p17ulv6322.1.2 switch=n enabled=y phases=2 Linecode=1P_OH_AL_2/0_Rucina_2

New Line.l(r:p17udm7054-p17udt1661lv) Units=km Length=0.0199575 bus1=p17udt1661lv.1.2 bus2=p17udm7054.1.2 switch=n enabled=y phases=2 Linecode=1P_OH_AL_2/0_Rucina_2

New Line.l(r:p17udm7056-p17ulv6482) Units=km Length=0.0239941 bus1=p17udm7056.1.2 bus2=p17ulv6482.1.2 switch=n enabled=y phases=2 Linecode=1P_OH_AL_2/0_Rucina_2

New Line.l(r:p17udm7056-p17udt1661lv) Units=km Length=0.0199575 bus1=p17udt1661lv.1.2 bus2=p17udm7056.1.2 switch=n enabled=y phases=2 Linecode=1P_OH_AL_2/0_Rucina_2

New Line.l(r:p17udm7061-p17ulv6327) Units=km Length=0.0155304 bus1=p17udm7061.1.2 bus2=p17ulv6327.1.2 switch=n enabled=y phases=2 Linecode=1P_OH_AL_2/0_Rucina_2

New Line.l(r:p17udm7062-p17ulv6512) Units=km Length=0.0207018 bus1=p17udm7062.1.2 bus2=p17ulv6512.1.2 switch=n enabled=y phases=2 Linecode=1P_OH_AL_2/0_Rucina_2

New Line.l(r:p17udm7061-p17udm7062) Units=km Length=0.0168006 bus1=p17udm7061.1.2 bus2=p17udm7062.1.2 switch=n enabled=y phases=2 Linecode=1P_OH_AL_2/0_Rucina_2

New Line.l(r:p17udm7061-p17udt1664lv) Units=km Length=0.0168106 bus1=p17udt1664lv.1.2 bus2=p17udm7061.1.2 switch=n enabled=y phases=2 Linecode=1P_OH_AL_2/0_Rucina_2

New Line.l(r:p17udm7063-p17ulv16068) Units=km Length=0.0163558 bus1=p17udm7063.1.2 bus2=p17ulv16068.1.2 switch=n enabled=y phases=2 Linecode=1P_OH_AL_2/0_Rucina_2

New Line.l(r:p17udm7063-p17udt1664lv) Units=km Length=0.0415616 bus1=p17udt1664lv.1.2 bus2=p17udm7063.1.2 switch=n enabled=y phases=2 Linecode=1P_OH_AL_4/0_Zuzara_2

New Line.l(r:p17udt1684lv-p17ulv6471) Units=km Length=0.0192642 bus1=p17udt1684lv.1.2 bus2=p17ulv6471.1.2 switch=n enabled=y phases=2 Linecode=1P_OH_AL_2/0_Rucina_2

New Line.l(r:p17udm7135-p17ulv6405) Units=km Length=0.0193367 bus1=p17udm7135.1.2 bus2=p17ulv6405.1.2 switch=n enabled=y phases=2 Linecode=1P_OH_AL_2/0_Rucina_2

New Line.l(r:p17udm7135-p17ulv15875) Units=km Length=0.00405665 bus1=p17udm7135.1.2 bus2=p17ulv15875.1.2 switch=n enabled=y phases=2 Linecode=1P_OH_AL_2/0_Rucina_2

New Line.l(r:p17udm7135-p17ulv15955) Units=km Length=0.0035723000000000005 bus1=p17udm7135.1.2 bus2=p17ulv15955.1.2 switch=n enabled=y phases=2 Linecode=1P_OH_AL_4_Periwinkle_2

New Line.l(r:p17udm7138-p17ulv15826) Units=km Length=0.020867200000000002 bus1=p17udm7138.1.2 bus2=p17ulv15826.1.2 switch=n enabled=y phases=2 Linecode=1P_OH_AL_2/0_Rucina_2

New Line.l(r:p17udm7135-p17udm7138) Units=km Length=0.018129 bus1=p17udm7135.1.2 bus2=p17udm7138.1.2 switch=n enabled=y phases=2 Linecode=1P_OH_AL_2/0_Rucina_2

New Line.l(r:p17udm7135-p17udt1684lv) Units=km Length=0.0181199 bus1=p17udt1684lv.1.2 bus2=p17udm7135.1.2 switch=n enabled=y phases=2 Linecode=1P_OH_AL_2/0_Rucina_2

New Line.l(r:p17udm7137-p17ulv15769) Units=km Length=0.00332533 bus1=p17udm7137.1.2 bus2=p17ulv15769.1.2 switch=n enabled=y phases=2 Linecode=1P_OH_AL_4_Periwinkle_2

New Line.l(r:p17udm7137-p17ulv16028) Units=km Length=0.00976994 bus1=p17udm7137.1.2 bus2=p17ulv16028.1.2 switch=n enabled=y phases=2 Linecode=1P_OH_AL_2/0_Rucina_2

New Line.l(r:p17udm7137-p17udt1684lv) Units=km Length=0.018129 bus1=p17udt1684lv.1.2 bus2=p17udm7137.1.2 switch=n enabled=y phases=2 Linecode=1P_OH_AL_2/0_Rucina_2

New Line.l(r:p17udt1685lv-p17ulv6416) Units=km Length=0.0101898 bus1=p17udt1685lv.1.2 bus2=p17ulv6416.1.2 switch=n enabled=y phases=2 Linecode=1P_OH_AL_2/0_Rucina_2

New Line.l(r:p17udm7143-p17ulv12848) Units=km Length=0.0212145 bus1=p17udm7143.1.2 bus2=p17ulv12848.1.2 switch=n enabled=y phases=2 Linecode=1P_OH_AL_2/0_Rucina_2

New Line.l(r:p17udm7143-p17udt1685lv) Units=km Length=0.081748 bus1=p17udt1685lv.1.2 bus2=p17udm7143.1.2 switch=n enabled=y phases=2 Linecode=1P_OH_AL_4/0_Zuzara_2

New Line.l(r:p17udt1689lv-p17ulv6431) Units=km Length=0.0144943 bus1=p17udt1689lv.1.2 bus2=p17ulv6431.1.2 switch=n enabled=y phases=2 Linecode=1P_OH_AL_2/0_Rucina_2

New Line.l(r:p17udt1689lv-p17ulv15915) Units=km Length=0.019520300000000004 bus1=p17udt1689lv.1.2 bus2=p17ulv15915.1.2 switch=n enabled=y phases=2 Linecode=1P_OH_AL_2/0_Rucina_2

New Line.l(r:p17udm7154-p17ulv45122) Units=km Length=0.010119600000000001 bus1=p17udm7154.1.2 bus2=p17ulv45122.1.2 switch=n enabled=y phases=2 Linecode=1P_OH_AL_2/0_Rucina_2

New Line.l(r:p17udm7154-p17ulv45426) Units=km Length=0.020880500000000003 bus1=p17udm7154.1.2 bus2=p17ulv45426.1.2 switch=n enabled=y phases=2 Linecode=1P_OH_AL_2/0_Rucina_2

New Line.l(r:p17udm7154-p17udt1689lv) Units=km Length=0.0180107 bus1=p17udt1689lv.1.2 bus2=p17udm7154.1.2 switch=n enabled=y phases=2 Linecode=1P_OH_AL_2/0_Rucina_2

New Line.l(r:p17udt1692lv-p17ulv6439) Units=km Length=0.0401035 bus1=p17udt1692lv.1.2 bus2=p17ulv6439.1.2 switch=n enabled=y phases=2 Linecode=1P_OH_AL_4/0_Zuzara_2

New Line.l(r:p17udt1692lv-p17ulv12619) Units=km Length=0.0174599 bus1=p17udt1692lv.1.2 bus2=p17ulv12619.1.2 switch=n enabled=y phases=2 Linecode=1P_OH_AL_2/0_Rucina_2

New Line.l(r:p17udt1692lv-p17ulv12855) Units=km Length=0.0123013 bus1=p17udt1692lv.1.2 bus2=p17ulv12855.1.2 switch=n enabled=y phases=2 Linecode=1P_OH_AL_2/0_Rucina_2

New Line.l(r:p17udt1692lv-p17ulv15809) Units=km Length=0.0177429 bus1=p17udt1692lv.1.2 bus2=p17ulv15809.1.2 switch=n enabled=y phases=2 Linecode=1P_OH_AL_2/0_Rucina_2

New Line.l(r:p17udm7166-p17ulv12652) Units=km Length=0.0140938 bus1=p17udm7166.1.2 bus2=p17ulv12652.1.2 switch=n enabled=y phases=2 Linecode=1P_OH_AL_2/0_Rucina_2

New Line.l(r:p17udm7166-p17ulv12799) Units=km Length=0.0396253 bus1=p17udm7166.1.2 bus2=p17ulv12799.1.2 switch=n enabled=y phases=2 Linecode=1P_OH_AL_4/0_Zuzara_2

New Line.l(r:p17udm7166-p17udt1692lv) Units=km Length=0.018172 bus1=p17udt1692lv.1.2 bus2=p17udm7166.1.2 switch=n enabled=y phases=2 Linecode=1P_OH_AL_2/0_Rucina_2

New Line.l(r:p17udt1695lv-p17ulv6470) Units=km Length=0.0170376 bus1=p17udt1695lv.1.2 bus2=p17ulv6470.1.2 switch=n enabled=y phases=2 Linecode=1P_OH_AL_2/0_Rucina_2

New Line.l(r:p17udt1725lv-p17ulv15815) Units=km Length=0.0217288 bus1=p17udt1725lv.1.2 bus2=p17ulv15815.1.2 switch=n enabled=y phases=2 Linecode=1P_OH_AL_2/0_Rucina_2

New Line.l(r:p17udt1725lv-p17ulv15829) Units=km Length=0.005312420000000001 bus1=p17udt1725lv.1.2 bus2=p17ulv15829.1.2 switch=n enabled=y phases=2 Linecode=1P_OH_AL_2/0_Rucina_2

New Line.l(r:p17udt1725lv-p17ulv15897) Units=km Length=0.0294389 bus1=p17udt1725lv.1.2 bus2=p17ulv15897.1.2 switch=n enabled=y phases=2 Linecode=1P_OH_AL_4/0_Zuzara_2

New Line.l(r:p17udt1725lv-p17ulv15963) Units=km Length=0.0135083 bus1=p17udt1725lv.1.2 bus2=p17ulv15963.1.2 switch=n enabled=y phases=2 Linecode=1P_OH_AL_2/0_Rucina_2

New Line.l(r:p17udm7342-p17ulv6605) Units=km Length=0.00682495 bus1=p17udm7342.1.2 bus2=p17ulv6605.1.2 switch=n enabled=y phases=2 Linecode=1P_OH_AL_2/0_Rucina_2

New Line.l(r:p17udm7346-p17ulv15854) Units=km Length=0.00432761 bus1=p17udm7346.1.2 bus2=p17ulv15854.1.2 switch=n enabled=y phases=2 Linecode=1P_OH_AL_2/0_Rucina_2

New Line.l(r:p17udm7346-p17ulv15886) Units=km Length=0.0096792 bus1=p17udm7346.1.2 bus2=p17ulv15886.1.2 switch=n enabled=y phases=2 Linecode=1P_OH_AL_2/0_Rucina_2

New Line.l(r:p17udm7346-p17ulv15916) Units=km Length=0.010698 bus1=p17udm7346.1.2 bus2=p17ulv15916.1.2 switch=n enabled=y phases=2 Linecode=1P_OH_AL_2/0_Rucina_2

New Line.l(r:p17udm7346-p17ulv16004) Units=km Length=0.022872 bus1=p17udm7346.1.2 bus2=p17ulv16004.1.2 switch=n enabled=y phases=2 Linecode=1P_OH_AL_2/0_Rucina_2

New Line.l(r:p17udm7342-p17udm7346) Units=km Length=0.016512900000000004 bus1=p17udm7342.1.2 bus2=p17udm7346.1.2 switch=n enabled=y phases=2 Linecode=1P_OH_AL_2/0_Rucina_2

New Line.l(r:p17udm7342-p17udt1725lv) Units=km Length=0.016512000000000002 bus1=p17udt1725lv.1.2 bus2=p17udm7342.1.2 switch=n enabled=y phases=2 Linecode=1P_OH_AL_2/0_Rucina_2

New Line.l(r:p17udm7343-p17ulv15795) Units=km Length=0.00384708 bus1=p17udm7343.1.2 bus2=p17ulv15795.1.2 switch=n enabled=y phases=2 Linecode=1P_OH_AL_4_Periwinkle_2

New Line.l(r:p17udm7343-p17ulv15931) Units=km Length=0.005636400000000001 bus1=p17udm7343.1.2 bus2=p17ulv15931.1.2 switch=n enabled=y phases=2 Linecode=1P_OH_AL_2/0_Rucina_2

New Line.l(r:p17udm7343-p17udt1725lv) Units=km Length=0.0180589 bus1=p17udt1725lv.1.2 bus2=p17udm7343.1.2 switch=n enabled=y phases=2 Linecode=1P_OH_AL_2/0_Rucina_2

New Line.l(r:p17udm7350-p17ulv15927) Units=km Length=0.00625879 bus1=p17udm7350.1.2 bus2=p17ulv15927.1.2 switch=n enabled=y phases=2 Linecode=1P_UG_AL_1/0_Brenau_2

New Line.l(r:p17udm7354-p17ulv16022) Units=km Length=0.00113547 bus1=p17udm7354.1.2 bus2=p17ulv16022.1.2 switch=n enabled=y phases=2 Linecode=1P_UG_AL_1/0_Brenau_2

New Line.l(r:p17udm7355-p17ulv44936) Units=km Length=0.00328525 bus1=p17udm7355.1.2 bus2=p17ulv44936.1.2 switch=n enabled=y phases=2 Linecode=1P_UG_AL_1/0_Brenau_2

New Line.l(r:p17udm7354-p17udm7355) Units=km Length=0.0166751 bus1=p17udm7354.1.2 bus2=p17udm7355.1.2 switch=n enabled=y phases=2 Linecode=1P_UG_AL_1/0_Brenau_2

New Line.l(r:p17udm7350-p17udm7354) Units=km Length=0.008388430000000002 bus1=p17udm7350.1.2 bus2=p17udm7354.1.2 switch=n enabled=y phases=2 Linecode=1P_UG_AL_1/0_Brenau_2

New Line.l(r:p17udm7350-p17udt1725lv) Units=km Length=0.00837929 bus1=p17udt1725lv.1.2 bus2=p17udm7350.1.2 switch=n enabled=y phases=2 Linecode=1P_OH_AL_2/0_Rucina_2

New Line.l(r:p17udt1731lv-p17ulv6621) Units=km Length=0.030890400000000002 bus1=p17udt1731lv.1.2 bus2=p17ulv6621.1.2 switch=n enabled=y phases=2 Linecode=1P_OH_AL_4/0_Zuzara_2

New Line.l(r:p17udt1731lv-p17ulv15940) Units=km Length=0.0021231300000000004 bus1=p17udt1731lv.1.2 bus2=p17ulv15940.1.2 switch=n enabled=y phases=2 Linecode=1P_OH_AL_4_Periwinkle_2

New Line.l(r:p17udt1731lv-p17ulv16060) Units=km Length=0.0126234 bus1=p17udt1731lv.1.2 bus2=p17ulv16060.1.2 switch=n enabled=y phases=2 Linecode=1P_OH_AL_2/0_Rucina_2

New Line.l(r:p17udm7377-p17ulv15781) Units=km Length=0.00825752 bus1=p17udm7377.1.2 bus2=p17ulv15781.1.2 switch=n enabled=y phases=2 Linecode=1P_OH_AL_2/0_Rucina_2

New Line.l(r:p17udm7377-p17udt1731lv) Units=km Length=0.017013100000000003 bus1=p17udt1731lv.1.2 bus2=p17udm7377.1.2 switch=n enabled=y phases=2 Linecode=1P_OH_AL_2/0_Rucina_2

New Line.l(r:p17udt1818lv-p17ulv7000) Units=km Length=0.0995464 bus1=p17udt1818lv.1.2 bus2=p17ulv7000.1.2 switch=n enabled=y phases=2 Linecode=1P_UG_AL_4/0_Sweetbriar_2

New Line.l(r:p17udm12041-p17ulv11234) Units=km Length=0.028175 bus1=p17udm12041.1.2 bus2=p17ulv11234.1.2 switch=n enabled=y phases=2 Linecode=1P_OH_AL_4/0_Zuzara_2

New Line.l(r:p17udm12041-p17udt2935lv) Units=km Length=0.0480629 bus1=p17udt2935lv.1.2 bus2=p17udm12041.1.2 switch=n enabled=y phases=2 Linecode=1P_OH_AL_4/0_Zuzara_2

New Line.l(r:p17udm12042-p17ulv11247) Units=km Length=0.0116027 bus1=p17udm12042.1.2 bus2=p17ulv11247.1.2 switch=n enabled=y phases=2 Linecode=1P_UG_AL_1/0_Brenau_2

New Line.l(r:p17udm12039-p17ulv11207) Units=km Length=0.0123889 bus1=p17udm12039.1.2 bus2=p17ulv11207.1.2 switch=n enabled=y phases=2 Linecode=1P_UG_AL_1/0_Brenau_2

New Line.l(r:p17udm12040-p17ulv11211) Units=km Length=0.013204600000000002 bus1=p17udm12040.1.2 bus2=p17ulv11211.1.2 switch=n enabled=y phases=2 Linecode=1P_UG_AL_1/0_Brenau_2

New Line.l(r:p17udm12039-p17udm12040) Units=km Length=0.0192265 bus1=p17udm12039.1.2 bus2=p17udm12040.1.2 switch=n enabled=y phases=2 Linecode=1P_UG_AL_1/0_Brenau_2

New Line.l(r:p17udm12039-p17udm12042) Units=km Length=0.0192266 bus1=p17udm12042.1.2 bus2=p17udm12039.1.2 switch=n enabled=y phases=2 Linecode=1P_UG_AL_1/0_Brenau_2

New Line.l(r:p17udm12042-p17udt2935lv) Units=km Length=0.00960971 bus1=p17udt2935lv.1.2 bus2=p17udm12042.1.2 switch=n enabled=y phases=2 Linecode=1P_UG_AL_1/0_Brenau_2

New Line.l(r:p17udt2936lv-p17ulv11208) Units=km Length=0.0227229 bus1=p17udt2936lv.1.2 bus2=p17ulv11208.1.2 switch=n enabled=y phases=2 Linecode=1P_UG_AL_1/0_Brenau_2

New Line.l(r:p17udt2936lv-p17ulv11238) Units=km Length=0.013981300000000002 bus1=p17udt2936lv.1.2 bus2=p17ulv11238.1.2 switch=n enabled=y phases=2 Linecode=1P_UG_AL_1/0_Brenau_2

New Line.l(r:p17udm12044-p17ulv11235) Units=km Length=0.014671800000000002 bus1=p17udm12044.1.2 bus2=p17ulv11235.1.2 switch=n enabled=y phases=2 Linecode=1P_UG_AL_1/0_Brenau_2

New Line.l(r:p17udm12044-p17udt2936lv) Units=km Length=0.00999018 bus1=p17udt2936lv.1.2 bus2=p17udm12044.1.2 switch=n enabled=y phases=2 Linecode=1P_UG_AL_1/0_Brenau_2

New Line.l(r:p17udm12048-p17ulv11223) Units=km Length=0.00492659 bus1=p17udm12048.1.2 bus2=p17ulv11223.1.2 switch=n enabled=y phases=2 Linecode=1P_OH_AL_2/0_Rucina_2

New Line.l(r:p17udm12047-p17ulv11210) Units=km Length=0.0227238 bus1=p17udm12047.1.2 bus2=p17ulv11210.1.2 switch=n enabled=y phases=2 Linecode=1P_UG_AL_1/0_Brenau_2

New Line.l(r:p17udm12046-p17ulv11209) Units=km Length=0.0088443 bus1=p17udm12046.1.2 bus2=p17ulv11209.1.2 switch=n enabled=y phases=2 Linecode=1P_UG_AL_1/0_Brenau_2

New Line.l(r:p17udm12046-p17udm12047) Units=km Length=0.009254240000000002 bus1=p17udm12047.1.2 bus2=p17udm12046.1.2 switch=n enabled=y phases=2 Linecode=1P_UG_AL_1/0_Brenau_2

New Line.l(r:p17udm12047-p17udm12048) Units=km Length=0.0925683 bus1=p17udm12048.1.2 bus2=p17udm12047.1.2 switch=n enabled=y phases=2 Linecode=1P_OH_AL_4/0_Zuzara_2

New Line.l(r:p17udm12048-p17udt2937lv) Units=km Length=0.04671 bus1=p17udt2937lv.1.2 bus2=p17udm12048.1.2 switch=n enabled=y phases=2 Linecode=1P_OH_AL_4/0_Zuzara_2

New Line.l(r:p17udt2942lv-p17ulv11220) Units=km Length=0.03835 bus1=p17udt2942lv.1.2 bus2=p17ulv11220.1.2 switch=n enabled=y phases=2 Linecode=1P_OH_AL_4/0_Zuzara_2

New Line.l(r:p17udm12060-p17ulv11250) Units=km Length=0.0211218 bus1=p17udm12060.1.2 bus2=p17ulv11250.1.2 switch=n enabled=y phases=2 Linecode=1P_OH_AL_2/0_Rucina_2

New Line.l(r:p17udm12060-p17udt2942lv) Units=km Length=0.0411697 bus1=p17udt2942lv.1.2 bus2=p17udm12060.1.2 switch=n enabled=y phases=2 Linecode=1P_OH_AL_4/0_Zuzara_2

New Line.l(r:p17udt2944lv-p17ulv11226) Units=km Length=0.0253423 bus1=p17udt2944lv.1.2 bus2=p17ulv11226.1.2 switch=n enabled=y phases=2 Linecode=1P_UG_AL_1/0_Brenau_2

New Line.l(r:p17udt2944lv-p17ulv11241) Units=km Length=0.014786000000000002 bus1=p17udt2944lv.1.2 bus2=p17ulv11241.1.2 switch=n enabled=y phases=2 Linecode=1P_UG_AL_1/0_Brenau_2

New Line.l(r:p17udm12066-p17ulv11224) Units=km Length=0.014228 bus1=p17udm12066.1.2 bus2=p17ulv11224.1.2 switch=n enabled=y phases=2 Linecode=1P_UG_AL_1/0_Brenau_2

New Line.l(r:p17udm12066-p17udt2944lv) Units=km Length=0.00999018 bus1=p17udt2944lv.1.2 bus2=p17udm12066.1.2 switch=n enabled=y phases=2 Linecode=1P_UG_AL_1/0_Brenau_2

New Line.l(r:p17udt2947lv-p17ulv11232) Units=km Length=0.00889092 bus1=p17udt2947lv.1.2 bus2=p17ulv11232.1.2 switch=n enabled=y phases=2 Linecode=1P_UG_AL_1/0_Brenau_2

New Line.l(r:p17udm12073-p17ulv11242) Units=km Length=0.011922 bus1=p17udm12073.1.2 bus2=p17ulv11242.1.2 switch=n enabled=y phases=2 Linecode=1P_UG_AL_1/0_Brenau_2

New Line.l(r:p17udm12074-p17ulv11244) Units=km Length=0.0103557 bus1=p17udm12074.1.2 bus2=p17ulv11244.1.2 switch=n enabled=y phases=2 Linecode=1P_OH_AL_2/0_Rucina_2

New Line.l(r:p17udm12073-p17udm12074) Units=km Length=0.05860400000000001 bus1=p17udm12073.1.2 bus2=p17udm12074.1.2 switch=n enabled=y phases=2 Linecode=1P_OH_AL_4/0_Zuzara_2

New Line.l(r:p17udm12073-p17udt2947lv) Units=km Length=0.00981033 bus1=p17udt2947lv.1.2 bus2=p17udm12073.1.2 switch=n enabled=y phases=2 Linecode=1P_UG_AL_1/0_Brenau_2

New Line.l(r:p17udm12075-p17ulv13810) Units=km Length=0.0136662 bus1=p17udm12075.1.2 bus2=p17ulv13810.1.2 switch=n enabled=y phases=2 Linecode=1P_UG_AL_1/0_Brenau_2

New Line.l(r:p17udm12075-p17udt2947lv) Units=km Length=0.0878119 bus1=p17udt2947lv.1.2 bus2=p17udm12075.1.2 switch=n enabled=y phases=2 Linecode=1P_UG_AL_1/0_Brenau_2

New Line.l(r:p17udt3191lv-p17ulv12289) Units=km Length=0.0113295 bus1=p17udt3191lv.1.2 bus2=p17ulv12289.1.2 switch=n enabled=y phases=2 Linecode=1P_OH_AL_2/0_Rucina_2

New Line.l(r:p17udm13032-p17ulv12749) Units=km Length=0.0114317 bus1=p17udm13032.1.2 bus2=p17ulv12749.1.2 switch=n enabled=y phases=2 Linecode=1P_OH_AL_2/0_Rucina_2

New Line.l(r:p17udm13030-p17ulv12430) Units=km Length=0.0107558 bus1=p17udm13030.1.2 bus2=p17ulv12430.1.2 switch=n enabled=y phases=2 Linecode=1P_OH_AL_2/0_Rucina_2

New Line.l(r:p17udm13030-p17ulv12725) Units=km Length=0.0195237 bus1=p17udm13030.1.2 bus2=p17ulv12725.1.2 switch=n enabled=y phases=2 Linecode=1P_OH_AL_2/0_Rucina_2

New Line.l(r:p17udm13030-p17udm13032) Units=km Length=0.0144529 bus1=p17udm13032.1.2 bus2=p17udm13030.1.2 switch=n enabled=y phases=2 Linecode=1P_OH_AL_2/0_Rucina_2

...