Grid Data/SMARTDS/p17uhs13_1247--p17udt1222/Lines.dss
New Line.l(r:p17udm5172-p17ulv4648) Units=km Length=0.0280124 bus1=p17udm5172.1.2 bus2=p17ulv4648.1.2 switch=n enabled=y phases=2 Linecode=1P_OH_AL_4/0_Zuzara_2

New Line.l(r:p17udm5172-p17udt1216lv) Units=km Length=0.0187927 bus1=p17udt1216lv.1.2 bus2=p17udm5172.1.2 switch=n enabled=y phases=2 Linecode=1P_OH_AL_2/0_Rucina_2

New Line.l(r:p17udm5173-p17ulv4722) Units=km Length=0.015114200000000001 bus1=p17udm5173.1.2 bus2=p17ulv4722.1.2 switch=n enabled=y phases=2 Linecode=1P_OH_AL_2/0_Rucina_2

New Line.l(r:p17udm5173-p17udt1216lv) Units=km Length=0.0188026 bus1=p17udt1216lv.1.2 bus2=p17udm5173.1.2 switch=n enabled=y phases=2 Linecode=1P_OH_AL_2/0_Rucina_2

New Line.l(r:p17udt1222lv-p17ulv4656) Units=km Length=0.0224419 bus1=p17udt1222lv.1.2 bus2=p17ulv4656.1.2 switch=n enabled=y phases=2 Linecode=1P_OH_AL_2/0_Rucina_2

New Line.l(r:p17udt1222lv-p17ulv4842) Units=km Length=0.0498915 bus1=p17udt1222lv.1.2 bus2=p17ulv4842.1.2 switch=n enabled=y phases=2 Linecode=1P_OH_AL_4/0_Zuzara_2

New Line.l(r:p17udm5195-p17ulv4709) Units=km Length=0.0251517 bus1=p17udm5195.1.2 bus2=p17ulv4709.1.2 switch=n enabled=y phases=2 Linecode=1P_OH_AL_2/0_Rucina_2

New Line.l(r:p17udm5195-p17udt1222lv) Units=km Length=0.0179503 bus1=p17udt1222lv.1.2 bus2=p17udm5195.1.2 switch=n enabled=y phases=2 Linecode=1P_OH_AL_2/0_Rucina_2

New Line.l(r:p17udt1227lv-p17ulv4672) Units=km Length=0.0690663 bus1=p17udt1227lv.1.2 bus2=p17ulv4672.1.2 switch=n enabled=y phases=2 Linecode=1P_OH_AL_4/0_Zuzara_2

New Line.l(r:p17udt1229lv-p17ulv4675) Units=km Length=0.0402998 bus1=p17udt1229lv.1.2 bus2=p17ulv4675.1.2 switch=n enabled=y phases=2 Linecode=1P_OH_AL_4/0_Zuzara_2

New Line.l(r:p17udt1229lv-p17ulv5133) Units=km Length=0.0097851 bus1=p17udt1229lv.1.2 bus2=p17ulv5133.1.2 switch=n enabled=y phases=2 Linecode=1P_OH_AL_2/0_Rucina_2

New Line.l(r:p17udm5218-p17ulv4710) Units=km Length=0.0094368 bus1=p17udm5218.1.2 bus2=p17ulv4710.1.2 switch=n enabled=y phases=2 Linecode=1P_OH_AL_2/0_Rucina_2

New Line.l(r:p17udm5218-p17ulv4715) Units=km Length=0.034285 bus1=p17udm5218.1.2 bus2=p17ulv4715.1.2 switch=n enabled=y phases=2 Linecode=1P_OH_AL_4/0_Zuzara_2

New Line.l(r:p17udm5217-p17ulv4688) Units=km Length=0.0204825 bus1=p17udm5217.1.2 bus2=p17ulv4688.1.2 switch=n enabled=y phases=2 Linecode=1P_OH_AL_2/0_Rucina_2

New Line.l(r:p17udm5217-p17ulv4831) Units=km Length=0.0448691 bus1=p17udm5217.1.2 bus2=p17ulv4831.1.2 switch=n enabled=y phases=2 Linecode=1P_OH_AL_4/0_Zuzara_2

New Line.l(r:p17udm5217-p17udm5218) Units=km Length=0.0186212 bus1=p17udm5218.1.2 bus2=p17udm5217.1.2 switch=n enabled=y phases=2 Linecode=1P_OH_AL_2/0_Rucina_2

New Line.l(r:p17udm5218-p17udt1229lv) Units=km Length=0.0186211 bus1=p17udt1229lv.1.2 bus2=p17udm5218.1.2 switch=n enabled=y phases=2 Linecode=1P_OH_AL_2/0_Rucina_2

New Line.l(r:p17udm5221-p17ulv5120) Units=km Length=0.0118605 bus1=p17udm5221.1.2 bus2=p17ulv5120.1.2 switch=n enabled=y phases=2 Linecode=1P_OH_AL_2/0_Rucina_2

New Line.l(r:p17udm5221-p17udt1229lv) Units=km Length=0.03725230000000001 bus1=p17udt1229lv.1.2 bus2=p17udm5221.1.2 switch=n enabled=y phases=2 Linecode=1P_OH_AL_4/0_Zuzara_2

New Line.l(r:p17udt1258lv-p17ulv4770) Units=km Length=0.0362829 bus1=p17udt1258lv.1.2 bus2=p17ulv4770.1.2 switch=n enabled=y phases=2 Linecode=1P_OH_AL_4/0_Zuzara_2

New Line.l(r:p17udt1261lv-p17ulv4783) Units=km Length=0.001 bus1=p17udt1261lv.1.2 bus2=p17ulv4783.1.2 switch=n enabled=y phases=2 Linecode=1P_OH_AL_4_Periwinkle_2

New Line.l(r:p17udt1267lv-p17ulv4814) Units=km Length=0.057844 bus1=p17udt1267lv.1.2 bus2=p17ulv4814.1.2 switch=n enabled=y phases=2 Linecode=1P_OH_AL_4/0_Zuzara_2

New Line.l(r:p17udt1267lv-p17ulv4822) Units=km Length=0.0280169 bus1=p17udt1267lv.1.2 bus2=p17ulv4822.1.2 switch=n enabled=y phases=2 Linecode=1P_OH_AL_4/0_Zuzara_2

New Line.l(r:p17udt1277lv-p17ulv4868) Units=km Length=0.0730865 bus1=p17udt1277lv.1.2 bus2=p17ulv4868.1.2 switch=n enabled=y phases=2 Linecode=1P_OH_AL_4/0_Zuzara_2

New Line.l(r:p17udm5364-p17ulv4876) Units=km Length=0.105282 bus1=p17udm5364.1.2 bus2=p17ulv4876.1.2 switch=n enabled=y phases=2 Linecode=1P_OH_AL_4/0_Zuzara_2

New Line.l(r:p17udm5364-p17udt1277lv) Units=km Length=0.019263 bus1=p17udt1277lv.1.2 bus2=p17udm5364.1.2 switch=n enabled=y phases=2 Linecode=1P_OH_AL_2/0_Rucina_2

New Line.l(r:p17udt1286lv-p17ulv4900) Units=km Length=0.0662702 bus1=p17udt1286lv.1.2 bus2=p17ulv4900.1.2 switch=n enabled=y phases=2 Linecode=1P_OH_AL_4/0_Zuzara_2

New Line.l(r:p17udt1307lv-p17ulv4973) Units=km Length=0.0727019 bus1=p17udt1307lv.1.2 bus2=p17ulv4973.1.2 switch=n enabled=y phases=2 Linecode=1P_OH_AL_4/0_Zuzara_2

New Line.l(r:p17udt1307lv-p17ulv4991) Units=km Length=0.022251000000000003 bus1=p17udt1307lv.1.2 bus2=p17ulv4991.1.2 switch=n enabled=y phases=2 Linecode=1P_OH_AL_2/0_Rucina_2

New Line.l(r:p17udt1307lv-p17ulv5210) Units=km Length=0.0417007 bus1=p17udt1307lv.1.2 bus2=p17ulv5210.1.2 switch=n enabled=y phases=2 Linecode=1P_OH_AL_4/0_Zuzara_2

...