Grid Data/SMARTDS/analysis/peak_line_overloads.csv
Loading (p.u.),Name,Bus1,Bus2
1.0015564093239175,Line.l(r:p17udt14344lv-p17ulv54674),p17udt14344lv.1.2,p17ulv54674.1.2
1.0120755339615863,Line.l(r:p17udm39845-p17udt10454lv),p17udt10454lv.1.2,p17udm39845.1.2
1.016852280272597,Line.l(r:p17udt1240lv-p17ulv4692),p17udt1240lv.1.2,p17ulv4692.1.2
1.0219085036843174,Line.l(r:p17udt3255lv-p17ulv12656),p17udt3255lv.1.2,p17ulv12656.1.2
1.0239022119962908,Line.l(r:p17udm32941-p17udt8643lv),p17udt8643lv.1.2,p17udm32941.1.2
1.0241794333969416,Line.l(r:p17udt3673lv-p17ulv14075),p17udt3673lv.1.2,p17ulv14075.1.2
1.0261280266699904,Line.l(r:p17udm34184-p17udt9034lv),p17udt9034lv.1.2,p17udm34184.1.2
1.032243723255327,Line.l(r:p17udm38119-p17ulv37325),p17udm38119.1.2,p17ulv37325.1.2
1.0512421318036151,Line.l(r:p17udm25947-p17udt6808lv),p17udt6808lv.1.2,p17udm25947.1.2
1.0983961419297534,Line.l(r:p17udm17003-p17ulv15958),p17udm17003.1.2,p17ulv15958.1.2
1.1299269424206215,Line.l(r:p17udm30957-p17ulv30147),p17udm30957.1.2,p17ulv30147.1.2
1.1419758335610037,Line.l(r:p17udm47007-p17udt12379lv),p17udt12379lv.1.2,p17udm47007.1.2
1.1419758526058301,Line.l(r:p17udm47007-p17ulv46921),p17udm47007.1.2,p17ulv46921.1.2
1.1544392288542586,Line.l(r:p17udm40145-p17ulv39678),p17udm40145.1.2,p17ulv39678.1.2
1.1570516633292491,Line.l(r:p17udm64420-p17ulv65971),p17udm64420.1.2,p17ulv65971.1.2
1.1584011329072517,Line.l(r:p17udm45228-p17udm45231),p17udm45231.1.2,p17udm45228.1.2
1.1616591050913947,Line.l(r:p17udt14878lv-p17ulv56400),p17udt14878lv.1.2,p17ulv56400.1.2
1.1699852562208992,Line.l(r:p17udm7809-p17udt1811lv),p17udt1811lv.1.2,p17udm7809.1.2
1.1699852867410168,Line.l(r:p17udm7809-p17ulv9315),p17udm7809.1.2,p17ulv9315.1.2
1.1815279302753738,Line.l(r:p17udm38119-p17udt10048lv),p17udt10048lv.1.2,p17udm38119.1.2
1.183292515048995,Line.l(r:p17udt14635lv-p17ulv55668),p17udt14635lv.1.2,p17ulv55668.1.2
1.1978838584046376,Line.l(r:p17udt14344lv-p17ulv54558),p17udt14344lv.1.2,p17ulv54558.1.2
1.2041102145420115,Line.l(r:p17udm54241-p17udt14337lv),p17udt14337lv.1.2,p17udm54241.1.2
1.2041102735087224,Line.l(r:p17udm54241-p17ulv54543),p17udm54241.1.2,p17ulv54543.1.2
1.216602594742293,Line.l(r:p17udm30655-p17ulv30011),p17udm30655.1.2,p17ulv30011.1.2
1.2582369443133237,Line.l(r:p17udm45077-p17udt11904lv),p17udt11904lv.1.2,p17udm45077.1.2
1.3228294353765393,Line.l(r:p17udt3351lv-p17ulv12879),p17udt3351lv.1.2,p17ulv12879.1.2
1.3687253931464953,Line.l(r:p17udt6070lv-p17ulv22437),p17udt6070lv.1.2,p17ulv22437.1.2
1.41448153045493,Line.l(r:p17udm45231-p17udt11936lv),p17udt11936lv.1.2,p17udm45231.1.2
1.4253783835046683,Line.l(r:p17udm39783-p17udt10433lv),p17udt10433lv.1.2,p17udm39783.1.2
1.4253784239328686,Line.l(r:p17udm39783-p17ulv39394),p17udm39783.1.2,p17ulv39394.1.2
1.4311121682924732,Line.l(r:p17udt10196lv-p17ulv38102),p17udt10196lv.1.2,p17ulv38102.1.2
1.4507035523969407,Line.l(r:p17udm7604-p17udt1764lv),p17udt1764lv.1.2,p17udm7604.1.2
1.4507035952169,Line.l(r:p17udm7604-p17ulv7095),p17udm7604.1.2,p17ulv7095.1.2
1.4717461485644154,Line.l(r:p17udt2390lv-p17ulv9245),p17udt2390lv.1.2,p17ulv9245.1.2
1.4976039823766594,Line.l(r:p17udt3658lv-p17ulv13954),p17udt3658lv.1.2,p17ulv13954.1.2
1.5034888094614525,Line.l(r:p17udm7567-p17udt1760lv),p17udt1760lv.1.2,p17udm7567.1.2
1.5284274149928208,Line.l(r:p17udt14863lv-p17ulv56176),p17udt14863lv.1.2,p17ulv56176.1.2
1.5843703205699857,Line.l(r:p17udm13331-p17udt3259lv),p17udt3259lv.1.2,p17udm13331.1.2
1.61705141275771,Line.l(r:p17udm7567-p17ulv6726),p17udm7567.1.2,p17ulv6726.1.2
1.6202302754773652,Line.l(r:p17udt6609lv-p17ulv25080),p17udt6609lv.1.2,p17ulv25080.1.2
1.650212629309034,Line.l(r:p17udm5568-p17udt1327lv),p17udt1327lv.1.2,p17udm5568.1.2
1.6532442765439175,Line.l(r:p17udt6788lv-p17ulv24966),p17udt6788lv.1.2,p17ulv24966.1.2
1.65377488958511,Line.l(r:p17udt2607lv-p17ulv10010),p17udt2607lv.1.2,p17ulv10010.1.2
1.6689536341191253,Line.l(r:p17udm14991-p17ulv14083),p17udm14991.1.2,p17ulv14083.1.2
1.6752717420677103,Line.l(r:p17udm40124-p17udt10528lv),p17udt10528lv.1.2,p17udm40124.1.2
1.675271878705862,Line.l(r:p17udm40124-p17ulv42657),p17udm40124.1.2,p17ulv42657.1.2
1.6991621688619771,Line.l(r:p17udm46961-p17udt12366lv),p17udt12366lv.1.2,p17udm46961.1.2
1.7050937998425966,Line.l(r:p17udm56604-p17udt15028lv),p17udt15028lv.1.2,p17udm56604.1.2
1.705093926809943,Line.l(r:p17udm56604-p17ulv57170),p17udm56604.1.2,p17ulv57170.1.2
1.7230449471558378,Line.l(r:p17udm13331-p17ulv12852),p17udm13331.1.2,p17ulv12852.1.2
1.7615628646832542,Line.l(r:p17udt14622lv-p17ulv55373),p17udt14622lv.1.2,p17ulv55373.1.2
1.762083808637191,Line.l(r:p17udm6796-p17udt1609lv),p17udt1609lv.1.2,p17udm6796.1.2
1.7813404911343538,Line.l(r:p17udm6793-p17udt1609lv),p17udt1609lv.1.2,p17udm6793.1.2
1.7825148057078986,Line.l(r:p17udm14991-p17ulv14048),p17udm14991.1.2,p17ulv14048.1.2
1.7827246670229446,Line.l(r:p17udm14546-p17udt3557lv),p17udt3557lv.1.2,p17udm14546.1.2
1.7827247047720787,Line.l(r:p17udm14546-p17ulv45006),p17udm14546.1.2,p17ulv45006.1.2
1.8277821854266023,Line.l(r:p17udt2390lv-p17ulv9322),p17udt2390lv.1.2,p17ulv9322.1.2
1.8408093906639424,Line.l(r:p17udm46961-p17ulv48080),p17udm46961.1.2,p17ulv48080.1.2
1.848837338296895,Line.l(r:p17udt7933lv-p17ulv30038),p17udt7933lv.1.2,p17ulv30038.1.2
1.8774763180767535,Line.l(r:p17udt11958lv-p17ulv45012),p17udt11958lv.1.2,p17ulv45012.1.2
1.8960367191408725,Line.l(r:p17udm5568-p17ulv5196),p17udm5568.1.2,p17ulv5196.1.2
1.8966732719843518,Line.l(r:p17udm47041-p17udt12386lv),p17udt12386lv.1.2,p17udm47041.1.2
1.9056509725766007,Line.l(r:p17udt2059lv-p17ulv7921),p17udt2059lv.1.2,p17ulv7921.1.2
1.925194592214795,Line.l(r:p17udt12437lv-p17ulv46964),p17udt12437lv.1.2,p17ulv46964.1.2
1.9254625737301527,Line.l(r:p17udm6793-p17ulv6034),p17udm6793.1.2,p17ulv6034.1.2
1.9274514094416049,Line.l(r:p17udm6796-p17ulv7920),p17udm6796.1.2,p17ulv7920.1.2
1.9520648349210772,Line.l(r:p17udt15028lv-p17ulv57722),p17udt15028lv.1.2,p17ulv57722.1.2
1.964659038200644,Line.l(r:p17udt11895lv-p17ulv44917),p17udt11895lv.1.2,p17ulv44917.1.2
1.9792606676007436,Line.l(r:p17udm47038-p17udm47041),p17udm47041.1.2,p17udm47038.1.2
1.9792612127902123,Line.l(r:p17udm47038-p17ulv46769),p17udm47038.1.2,p17ulv46769.1.2
1.9818979734282163,Line.l(r:p17udm47083-p17udt12400lv),p17udt12400lv.1.2,p17udm47083.1.2
1.9818979836005173,Line.l(r:p17udm47083-p17ulv46752),p17udm47083.1.2,p17ulv46752.1.2
1.9838369335464274,Line.l(r:p17udm65927-p17udt17489lv),p17udt17489lv.1.2,p17udm65927.1.2
1.9838370958017104,Line.l(r:p17udm65927-p17ulv67495),p17udm65927.1.2,p17ulv67495.1.2
2.0073029068875874,Line.l(r:p17udt2619lv-p17ulv10086),p17udt2619lv.1.2,p17ulv10086.1.2
2.014217385525093,Line.l(r:p17udm30957-p17udt8064lv),p17udt8064lv.1.2,p17udm30957.1.2
2.0245260260504176,Line.l(r:p17udt4170lv-p17ulv15909),p17udt4170lv.1.2,p17ulv15909.1.2
2.034195886651355,Line.l(r:p17udt4643lv-p17ulv17854),p17udt4643lv.1.2,p17ulv17854.1.2
2.0380276005418443,Line.l(r:p17udm39782-p17udt10433lv),p17udt10433lv.1.2,p17udm39782.1.2
2.0380276821990804,Line.l(r:p17udm39782-p17ulv39293),p17udm39782.1.2,p17ulv39293.1.2
2.0401932660358018,Line.l(r:p17udt12386lv-p17ulv46776),p17udt12386lv.1.2,p17ulv46776.1.2
2.0422886141399834,Line.l(r:p17udt4078lv-p17ulv15437),p17udt4078lv.1.2,p17ulv15437.1.2
2.052065493456208,Line.l(r:p17udt5606lv-p17ulv29471),p17udt5606lv.1.2,p17ulv29471.1.2
2.053478202954225,Line.l(r:p17udt1832lv-p17ulv32511),p17udt1832lv.1.2,p17ulv32511.1.2
2.07809713097421,Line.l(r:p17udm54943-p17udt14584lv),p17udt14584lv.1.2,p17udm54943.1.2
2.078097219526232,Line.l(r:p17udm54943-p17ulv55282),p17udm54943.1.2,p17ulv55282.1.2
2.081707337514637,Line.l(r:p17udt15028lv-p17ulv57226),p17udt15028lv.1.2,p17ulv57226.1.2
2.0932743518733106,Line.l(r:p17udm30706-p17udt7978lv),p17udt7978lv.1.2,p17udm30706.1.2
2.0932745292727604,Line.l(r:p17udm30706-p17ulv29944),p17udm30706.1.2,p17ulv29944.1.2
2.0940014546085273,Line.l(r:p17udm18775-p17udt4639lv),p17udt4639lv.1.2,p17udm18775.1.2
2.0940016127788526,Line.l(r:p17udm18775-p17ulv17850),p17udm18775.1.2,p17ulv17850.1.2
2.1493997560921585,Line.l(r:p17udm30896-p17udt8045lv),p17udt8045lv.1.2,p17udm30896.1.2
2.1504866330934,Line.l(r:p17udm18784-p17udt4643lv),p17udt4643lv.1.2,p17udm18784.1.2
2.150486761825217,Line.l(r:p17udm18784-p17ulv17889),p17udm18784.1.2,p17ulv17889.1.2
2.326750665864361,Line.l(r:p17udt1227lv-p17ulv4672),p17udt1227lv.1.2,p17ulv4672.1.2
2.375798113183632,Line.l(r:p17udt4170lv-p17ulv16093),p17udt4170lv.1.2,p17ulv16093.1.2
2.383604351247073,Line.l(r:p17udm64257-p17udt17019lv),p17udt17019lv.1.2,p17udm64257.1.2
2.4145853215382553,Line.l(r:p17udt7975lv-p17ulv29690),p17udt7975lv.1.2,p17ulv29690.1.2
2.4264308929126535,Line.l(r:p17udt4164lv-p17ulv15784),p17udt4164lv.1.2,p17ulv15784.1.2
2.4264362234407284,Line.l(r:p17udt4159lv-p17ulv16051),p17udt4159lv.1.2,p17ulv16051.1.2
2.4743041510920056,Line.l(r:p17udm47106-p17udt12408lv),p17udt12408lv.1.2,p17udm47106.1.2
2.4743041704102575,Line.l(r:p17udm47106-p17ulv46778),p17udm47106.1.2,p17ulv46778.1.2
2.4919162382797095,Line.l(r:p17udm30896-p17ulv30056),p17udm30896.1.2,p17ulv30056.1.2
2.4985920374507753,Line.l(r:p17udt2059lv-p17ulv7973),p17udt2059lv.1.2,p17ulv7973.1.2
2.5033710385405397,Line.l(r:p17udm64256-p17udm64257),p17udm64257.1.2,p17udm64256.1.2
2.5070385218822775,Line.l(r:p17udm31773-p17udt8275lv),p17udt8275lv.1.2,p17udm31773.1.2
2.507038648378993,Line.l(r:p17udm31773-p17ulv30801),p17udm31773.1.2,p17ulv30801.1.2
2.514095769958471,Line.l(r:p17udt12414lv-p17ulv46794),p17udt12414lv.1.2,p17ulv46794.1.2
2.5318600495332175,Line.l(r:p17udt2604lv-p17ulv10003),p17udt2604lv.1.2,p17ulv10003.1.2
2.5639637116553518,Line.l(r:p17udm64256-p17udm64258),p17udm64256.1.2,p17udm64258.1.2
2.5639638319611917,Line.l(r:p17udm64258-p17ulv67402),p17udm64258.1.2,p17ulv67402.1.2
2.597927308273997,Line.l(r:p17udm37978-p17udt10021lv),p17udt10021lv.1.2,p17udm37978.1.2
2.6182678127313603,Line.l(r:p17udm10027-p17udt2390lv),p17udt2390lv.1.2,p17udm10027.1.2
2.6182679063487186,Line.l(r:p17udm10027-p17ulv9299),p17udm10027.1.2,p17ulv9299.1.2
2.649736443883108,Line.l(r:p17udt6830lv-p17ulv25069),p17udt6830lv.1.2,p17ulv25069.1.2
2.6614217064924426,Line.l(r:p17udt1164lv-p17ulv4480),p17udt1164lv.1.2,p17ulv4480.1.2
2.672524842617717,Line.l(r:p17udm16505-p17udt4078lv),p17udt4078lv.1.2,p17udm16505.1.2
2.6725249997854963,Line.l(r:p17udm16505-p17ulv15503),p17udm16505.1.2,p17ulv15503.1.2
2.699451188667926,Line.l(r:p17udm30589-p17udt7943lv),p17udt7943lv.1.2,p17udm30589.1.2
2.6994513600700665,Line.l(r:p17udm30589-p17ulv29648),p17udm30589.1.2,p17ulv29648.1.2
2.7036830340930718,Line.l(r:p17udm13844-p17udt3384lv),p17udt3384lv.1.2,p17udm13844.1.2
2.7036831289274157,Line.l(r:p17udm13844-p17ulv12973),p17udm13844.1.2,p17ulv12973.1.2
2.7115899677867374,Line.l(r:p17udm45053-p17udt11900lv),p17udt11900lv.1.2,p17udm45053.1.2
2.711590260336862,Line.l(r:p17udm45053-p17ulv44922),p17udm45053.1.2,p17ulv44922.1.2
2.712353967071238,Line.l(r:p17udm55177-p17udt14666lv),p17udt14666lv.1.2,p17udm55177.1.2
2.7123543554309113,Line.l(r:p17udm55177-p17ulv55628),p17udm55177.1.2,p17ulv55628.1.2
2.741677111925295,Line.l(r:p17udm37978-p17ulv37797),p17udm37978.1.2,p17ulv37797.1.2
2.7657181559496893,Line.l(r:p17udm21023-p17udt5423lv),p17udt5423lv.1.2,p17udm21023.1.2
2.7657186370444196,Line.l(r:p17udm21023-p17ulv20105),p17udm21023.1.2,p17ulv20105.1.2
2.7664489033168107,Line.l(r:p17udt14378lv-p17ulv54831),p17udt14378lv.1.2,p17ulv54831.1.2
2.7912797271395315,Line.l(r:p17udt12424lv-p17ulv46842),p17udt12424lv.1.2,p17ulv46842.1.2
2.8102959049461345,Line.l(r:p17udm54380-p17udt14378lv),p17udt14378lv.1.2,p17udm54380.1.2
2.810295917947995,Line.l(r:p17udm54380-p17ulv54728),p17udm54380.1.2,p17ulv54728.1.2
2.847857483645417,Line.l(r:p17udt4159lv-p17ulv15768),p17udt4159lv.1.2,p17ulv15768.1.2
2.920280910825424,Line.l(r:p17udm23412-p17udt6072lv),p17udt6072lv.1.2,p17udm23412.1.2
2.920281300379563,Line.l(r:p17udm23412-p17ulv22449),p17udm23412.1.2,p17ulv22449.1.2
3.219506704641618,Line.l(r:p17udt8045lv-p17ulv55443),p17udt8045lv.1.2,p17ulv55443.1.2
3.4058228671423705,Line.l(r:p17udm14991-p17udt3665lv),p17udt3665lv.1.2,p17udm14991.1.2
