Grid Data/SMARTDS/analysis/peak_transformer_overloads.csv
Loading (p.u.),Name,Bus and Phases,kVA,Number of Phases
1.007764452368393,Transformer.tr(r:p17udt10308-p17udt10308lv),p17udt10308,75.0,3
1.0462509138217553,Transformer.tr(r:p17udt8256-p17udt8256lv),p17udt8256.2,50.0,1
1.0620899946432065,Transformer.tr(r:p17udt10535-p17udt10535lv),p17udt10535.1,50.0,1
1.0672509691498377,Transformer.tr(r:p17udt10324-p17udt10324lv),p17udt10324.1,50.0,1
1.0913395438476508,Transformer.tr(r:p17udt14635-p17udt14635lv),p17udt14635.1,25.0,1
1.1554580423928615,Transformer.tr(r:p17udt3674-p17udt3674lv),p17udt3674.3,50.0,1
1.1813003410116019,Transformer.tr(r:p17udt3384-p17udt3384lv),p17udt3384.3,50.0,1
1.2347624201920893,Transformer.tr(r:p17udt17055-p17udt17055lv),p17udt17055.3,50.0,1
1.2651545912912434,Transformer.tr(r:p17udt14381-p17udt14381lv),p17udt14381.1,50.0,1
1.2759958414053156,Transformer.tr(r:p17udt10021-p17udt10021lv),p17udt10021.2,50.0,1
1.282926944955655,Transformer.tr(r:p17udt17019-p17udt17019lv),p17udt17019.2,50.0,1
1.2910496469762023,Transformer.tr(r:p17udt12386-p17udt12386lv),p17udt12386.1,75.0,1
1.3354256455150681,Transformer.tr(r:p17udt4164-p17udt4164lv),p17udt4164.2,50.0,1
1.3680654626160642,Transformer.tr(r:p17udt14873-p17udt14873lv),p17udt14873,100.0,3
1.3935492385355406,Transformer.tr(r:p17udt2604-p17udt2604lv),p17udt2604.3,50.0,1
1.3993403066510222,Transformer.tr(r:p17udt1818-p17udt1818lv),p17udt1818.2,25.0,1
1.4107915881436406,Transformer.tr(r:p17udt14344-p17udt14344lv),p17udt14344.2,75.0,1
1.436044277064803,Transformer.tr(r:p17udt1164-p17udt1164lv),p17udt1164.1,50.0,1
1.4551725609481427,Transformer.tr(r:p17udt3351-p17udt3351lv),p17udt3351.1,25.0,1
1.4755984818750831,Transformer.tr(r:p17udt3673-p17udt3673lv),p17udt3673.3,50.0,1
1.5060405544268107,Transformer.tr(r:p17udt6070-p17udt6070lv),p17udt6070.3,25.0,1
1.5365661156014225,Transformer.tr(r:p17udt12424-p17udt12424lv),p17udt12424.1,50.0,1
1.5940464379294403,Transformer.tr(r:p17udt1760-p17udt1760lv),p17udt1760.3,25.0,1
1.7333550674607787,Transformer.tr(r:p17udt14337-p17udt14337lv),p17udt14337.2,75.0,1
1.7585436568129384,Transformer.tr(r:p17udt1327-p17udt1327lv),p17udt1327.3,25.0,1
1.8318237729908866,Transformer.tr(r:p17udt3557-p17udt3557lv),p17udt3557.3,25.0,1
1.853605105927299,Transformer.tr(r:p17udt4159-p17udt4159lv),p17udt4159.3,75.0,1
1.8947943268758245,Transformer.tr(r:p17udt14584-p17udt14584lv),p17udt14584.3,25.0,1
1.8998072547197289,Transformer.tr(r:p17udt10433-p17udt10433lv),p17udt10433.3,50.0,1
1.907493543564132,Transformer.tr(r:p17udt12400-p17udt12400lv),p17udt12400.2,25.0,1
1.939776886756794,Transformer.tr(r:p17udt14622-p17udt14622lv),p17udt14622.3,25.0,1
1.950428813847722,Transformer.tr(r:p17udt1609-p17udt1609lv),p17udt1609.2,50.0,1
1.975358329768113,Transformer.tr(r:p17udt14878-p17udt14878lv),p17udt14878.2,50.0,1
2.0109398656845454,Transformer.tr(r:p17udt11895-p17udt11895lv),p17udt11895.2,25.0,1
2.06747128193433,Transformer.tr(r:p17udt11958-p17udt11958lv),p17udt11958.2,25.0,1
2.110315344428739,Transformer.tr(r:p17udt8064-p17udt8064lv),p17udt8064.1,25.0,1
2.1203594079032038,Transformer.tr(r:p17udt12437-p17udt12437lv),p17udt12437.2,25.0,1
2.132056066206544,Transformer.tr(r:p17udt17489-p17udt17489lv),p17udt17489.2,25.0,1
2.170697739398596,Transformer.tr(r:p17udt1811-p17udt1811lv),p17udt1811.3,25.0,1
2.1930320712479667,Transformer.tr(r:p17udt7978-p17udt7978lv),p17udt7978.3,25.0,1
2.2098700762339503,Transformer.tr(r:p17udt2619-p17udt2619lv),p17udt2619.1,25.0,1
2.2507800804539,Transformer.tr(r:p17udt4639-p17udt4639lv),p17udt4639.2,25.0,1
2.2772734696499404,Transformer.tr(r:p17udt1832-p17udt1832lv),p17udt1832.2,25.0,1
2.3240830715844525,Transformer.tr(r:p17udt4170-p17udt4170lv),p17udt4170.3,50.0,1
2.380217859950751,Transformer.tr(r:p17udt2059-p17udt2059lv),p17udt2059.2,50.0,1
2.5606230808402626,Transformer.tr(r:p17udt12408-p17udt12408lv),p17udt12408.2,25.0,1
2.5631600327791912,Transformer.tr(r:p17udt1227-p17udt1227lv),p17udt1227.1,25.0,1
2.644282113697259,Transformer.tr(r:p17udt1764-p17udt1764lv),p17udt1764.1,25.0,1
2.6606597234900438,Transformer.tr(r:p17udt7975-p17udt7975lv),p17udt7975.2,25.0,1
2.770363167515443,Transformer.tr(r:p17udt12414-p17udt12414lv),p17udt12414.3,25.0,1
2.789541164058744,Transformer.tr(r:p17udt7943-p17udt7943lv),p17udt7943.2,25.0,1
2.819495115175701,Transformer.tr(r:p17udt8045-p17udt8045lv),p17udt8045.1,50.0,1
2.8301216872581114,Transformer.tr(r:p17udt14666-p17udt14666lv),p17udt14666.1,25.0,1
2.840792947261502,Transformer.tr(r:p17udt8275-p17udt8275lv),p17udt8275.1,25.0,1
2.9202737225075994,Transformer.tr(r:p17udt6830-p17udt6830lv),p17udt6830.1,25.0,1
2.933675528027056,Transformer.tr(r:p17udt5423-p17udt5423lv),p17udt5423.3,25.0,1
2.9999562012556167,Transformer.tr(r:p17udt11900-p17udt11900lv),p17udt11900.1,25.0,1
3.0005396543376146,Transformer.tr(r:p17udt6072-p17udt6072lv),p17udt6072.3,25.0,1
3.0027806175328777,Transformer.tr(r:p17udt14863-p17udt14863lv),p17udt14863.3,25.0,1
3.135409869003156,Transformer.tr(r:p17udt15028-p17udt15028lv),p17udt15028.1,50.0,1
3.2231240095694265,Transformer.tr(r:p17udt2390-p17udt2390lv),p17udt2390.2,50.0,1
3.3437560572517575,Transformer.tr(r:p17udt3658-p17udt3658lv),p17udt3658.3,25.0,1
3.767208430827681,Transformer.tr(r:p17udt3665-p17udt3665lv),p17udt3665.1,25.0,1
4.557214251612849,Transformer.tr(r:p17udt4643-p17udt4643lv),p17udt4643.2,25.0,1
5.161622114588207,Transformer.tr(r:p17udt4078-p17udt4078lv),p17udt4078.1,25.0,1
6.059764433766408,Transformer.tr(r:p17udt14378-p17udt14378lv),p17udt14378.2,25.0,1
